
     RDKit          3D

 21 22  0  0  0  0  0  0  0  0999 V2000
    0.7986    2.5181   -0.4809 C   0  0  0  0  0  0  0  0  0  0  0  0
    0.2941    1.1826   -0.2198 N   0  0  0  0  0  0  0  0  0  0  0  0
    1.1654    0.1269   -0.1071 C   0  0  0  0  0  0  0  0  0  0  0  0
    0.7259   -1.1355    0.1368 C   0  0  0  0  0  0  0  0  0  0  0  0
   -0.6399   -1.4778    0.2948 C   0  0  0  0  0  0  0  0  0  0  0  0
   -1.0049   -2.6280    0.5145 O   0  0  0  0  0  0  0  0  0  0  0  0
   -1.4873   -0.3740    0.1724 N   0  0  0  0  0  0  0  0  0  0  0  0
   -1.0771    0.9537   -0.0804 C   0  0  0  0  0  0  0  0  0  0  0  0
   -1.9038    1.8661   -0.1725 O   0  0  0  0  0  0  0  0  0  0  0  0
   -2.9138   -0.5892    0.3135 C   0  0  0  0  0  0  0  0  0  0  0  0
    1.8477   -1.9096    0.1838 N   0  0  0  0  0  0  0  0  0  0  0  0
    2.9111   -1.0719   -0.0349 C   0  0  0  0  0  0  0  0  0  0  0  0
    2.5222    0.1751   -0.2152 N   0  0  0  0  0  0  0  0  0  0  0  0
   -0.0077    3.2534   -0.5443 H   0  0  0  0  0  0  0  0  0  0  0  0
    1.4743    2.8095    0.3295 H   0  0  0  0  0  0  0  0  0  0  0  0
    1.3441    2.5147   -1.4299 H   0  0  0  0  0  0  0  0  0  0  0  0
   -3.4145   -0.2693   -0.6062 H   0  0  0  0  0  0  0  0  0  0  0  0
   -3.2859    0.0241    1.1408 H   0  0  0  0  0  0  0  0  0  0  0  0
   -3.1631   -1.6353    0.5076 H   0  0  0  0  0  0  0  0  0  0  0  0
    1.8810   -2.9076    0.3486 H   0  0  0  0  0  0  0  0  0  0  0  0
    3.9337   -1.4263   -0.0509 H   0  0  0  0  0  0  0  0  0  0  0  0
  1  2  1  0
  2  3  1  0
  3  4  2  0
  4  5  1  0
  5  6  2  0
  5  7  1  0
  7  8  1  0
  8  9  2  0
  7 10  1  0
  4 11  1  0
 11 12  1  0
 12 13  2  0
  8  2  1  0
 13  3  1  0
  1 14  1  0
  1 15  1  0
  1 16  1  0
 10 17  1  0
 10 18  1  0
 10 19  1  0
 11 20  1  0
 12 21  1  0
M  END
$$$$
